Circuit: * C:\Users\ammit\Desktop\Pen\ISEL\ISEL\2223\LEIC\s1\E\Trab2\T2_Eletronica\Exemplo.asc

Direct Newton iteration for .op point succeeded.

Date: Thu Dec 29 15:42:37 2022
Total elapsed time: 0.222 seconds.

tnom = 27
temp = 27
method = modified trap
totiter = 2125
traniter = 2088
tranpoints = 1045
accept = 1045
rejected = 0
matrix size = 52
fillins = 16
solver = Normal
Matrix Compiler1: 5.03 KB object code size  1.1/0.8/[0.3]
Matrix Compiler2: 5.65 KB object code size  0.8/1.0/[0.5]

