Circuit: * C:\Users\ammit\Desktop\Pen\ISEL\ISEL\2223\LEIC\s1\E\Trab2\T2_Eletronica\NOT-test.asc

Direct Newton iteration for .op point succeeded.

Date: Thu Dec 29 16:01:15 2022
Total elapsed time: 0.071 seconds.

tnom = 27
temp = 27
method = modified trap
totiter = 2373
traniter = 2365
tranpoints = 1161
accept = 1145
rejected = 16
matrix size = 7
fillins = 0
solver = Normal
Matrix Compiler1: 250 bytes object code size  0.1/0.0/[0.0]
Matrix Compiler2: 523 bytes object code size  0.1/0.1/[0.0]

