Circuit: * C:\Users\ammit\Desktop\Pen\ISEL\ISEL\2223\LEIC\s1\E\Trab2\T2_Eletronica\Output.asc

Direct Newton iteration for .op point succeeded.
Heightened Def Con from 0.09475 to 0.09475
Heightened Def Con from 0.15725 to 0.15725
Heightened Def Con from 0.21975 to 0.21975
Heightened Def Con from 0.46975 to 0.46975
Heightened Def Con from 1.15725 to 1.15725
Heightened Def Con from 1.46975 to 1.46975
Heightened Def Con from 2.15725 to 2.15725
Heightened Def Con from 2.21975 to 2.21975
Heightened Def Con from 2.34475 to 2.34475
Heightened Def Con from 2.46975 to 2.46975
Heightened Def Con from 3.21975 to 3.21975

Date: Fri Jan 06 18:57:24 2023
Total elapsed time: 1.266 seconds.

tnom = 27
temp = 27
method = modified trap
totiter = 51222
traniter = 51191
tranpoints = 11748
accept = 8863
rejected = 2896
matrix size = 58
fillins = 8
solver = Normal
Thread vector: 19.0/15.8[3] 4.9/5.5[1] 1.3/1.9[1] 0.2/4.8[1]  2592/500
Matrix Compiler1: 4.52 KB object code size  1.1/0.8/[0.2]
Matrix Compiler2: 6.71 KB object code size  0.8/1.1/[0.3]

