Circuit: * C:\Users\Andre\Desktop\ISEL\2223\LEIC\s1\E\Trab3\Test.asc

Direct Newton iteration for .op point succeeded.
Heightened Def Con from 0.001 to 0.001
Heightened Def Con from 0.126 to 0.126
Heightened Def Con from 0.1885 to 0.1885
Heightened Def Con from 0.251 to 0.251
Heightened Def Con from 0.376 to 0.376
Heightened Def Con from 0.5635 to 0.5635
Heightened Def Con from 0.59475 to 0.59475
Heightened Def Con from 0.626 to 0.626
Heightened Def Con from 0.65725 to 0.65725
Heightened Def Con from 0.6885 to 0.6885
Heightened Def Con from 0.71975 to 0.71975
Heightened Def Con from 0.751 to 0.751
Heightened Def Con from 0.78225 to 0.78225
Heightened Def Con from 0.8135 to 0.8135
Heightened Def Con from 0.84475 to 0.84475
Heightened Def Con from 0.876 to 0.876
Heightened Def Con from 0.90725 to 0.90725
Heightened Def Con from 0.9385 to 0.9385
Heightened Def Con from 0.96975 to 0.96975

Date: Mon Dec 12 11:54:37 2022
Total elapsed time: 0.908 seconds.

tnom = 27
temp = 27
method = modified trap
totiter = 19104
traniter = 19070
tranpoints = 4285
accept = 3356
rejected = 948
matrix size = 62
fillins = 16
solver = Normal
Matrix Compiler1: 5.80 KB object code size  2.8/2.0/[0.7]
Matrix Compiler2: 7.37 KB object code size  1.9/2.7/[0.5]

