Circuit: * C:\Users\fbrun\Desktop\Programas Universidade\eletronica\circuitos\eletronica\T2_Eletronica\Test.asc

Direct Newton iteration for .op point succeeded.

Date: Fri Dec 30 17:58:15 2022
Total elapsed time: 0.070 seconds.

tnom = 27
temp = 27
method = modified trap
totiter = 556
traniter = 522
tranpoints = 262
accept = 262
rejected = 0
matrix size = 66
fillins = 16
solver = Normal

