Circuit: * C:\Users\dougl\Documents\Universidade\6oSemestre\Eletr\Trab3\circuitos\Test.asc

Direct Newton iteration for .op point succeeded.

Date: Sun Dec 11 18:59:42 2022
Total elapsed time: 0.321 seconds.

tnom = 27
temp = 27
method = modified trap
totiter = 2117
traniter = 2091
tranpoints = 1045
accept = 1045
rejected = 0
matrix size = 66
fillins = 4
solver = Normal
Thread vector: 78.4/50.9[6] 17.5/12.8[6] 4.6/7.7[1] 0.3/3.0[1]  2592/500
Matrix Compiler1: 4.74 KB object code size  2.3/1.1/[0.5]
Matrix Compiler2: 6.76 KB object code size  1.3/1.9/[0.4]

