Circuit: * C:\Users\ammit\Desktop\Pen\ISEL\ISEL\2223\LEIC\s1\E\Trab2\T2_Eletronica\TPLH_TPHL.asc

Direct Newton iteration for .op point succeeded.

Date: Fri Jan 06 20:18:20 2023
Total elapsed time: 0.388 seconds.

tnom = 27
temp = 27
method = modified trap
totiter = 15226
traniter = 15195
tranpoints = 3952
accept = 3115
rejected = 837
matrix size = 30
fillins = 4
solver = Normal
Matrix Compiler1: 2.28 KB object code size  0.6/0.3/[0.1]
Matrix Compiler2: 3.37 KB object code size  0.3/0.7/[0.3]

