Circuit: * C:\Users\ammit\Desktop\Pen\ISEL\ISEL\2223\LEIC\s1\E\Trab2\T2_Eletronica\E-TP2-guia-aulas-simulacao\E-TP2-guia-inicial-simulacao\inverter-tristate.asc

Instance "m:mn3:1": Length shorter than recommended for a level 1 MOSFET.
Instance "m:mp3:1": Length shorter than recommended for a level 1 MOSFET.
Instance "m:mn2:1": Length shorter than recommended for a level 1 MOSFET.
Instance "m:mp2:1": Length shorter than recommended for a level 1 MOSFET.
Instance "m:mn1:1": Length shorter than recommended for a level 1 MOSFET.
Instance "m:mp1:1": Length shorter than recommended for a level 1 MOSFET.
Direct Newton iteration for .op point succeeded.

Date: Thu Dec 29 17:20:25 2022
Total elapsed time: 0.079 seconds.

tnom = 27
temp = 27
method = modified trap
totiter = 4152
traniter = 4143
tranpoints = 1761
accept = 1638
rejected = 123
matrix size = 9
fillins = 0
solver = Normal
Matrix Compiler1: 448 bytes object code size  0.1/0.1/[0.1]
Matrix Compiler2: 821 bytes object code size  0.1/0.1/[0.1]

